33
Export_20160115191441.xyz
H -0.2574874 3.911874 1.555371
O -0.2501606 2.95397 1.58189
H 1.089751 5.955894 0.2163687
O 1.368371 5.484092 1.000987
H 1.485206 4.893729 1.527959
O 1.568263 3.974153 1.276297
H -0.6934699 6.932255 6.767808
O -0.6757735 6.003916 6.536057
H -0.1515328 3.858524 3.293541
H 0.03221023 2.328942 2.405289
H 1.26161 3.603736 2.244212
H 1.111686 2.700573 3.768771
C 0.5635237 3.122971 2.927927
H 1.127607 3.759593 5.493198
H 1.534706 2.330622 4.516074
H 2.776062 3.55739 4.857449
H 2.189681 2.499121 6.160786
C 1.906999 3.036761 5.256851
H -0.2468104 5.096401 6.615467
H 0.1504166 3.566796 5.8
H 1.449829 4.681376 6.281355
H 0.542012 3.785334 7.520459
C 0.4740243 4.282403 6.554393
H 0.4856167 5.546391 9.052773
H 0.4490674 4.626781 7.531106
H 1.860694 5.632725 7.928419
H 1.549789 4.137085 8.83952
C 1.086249 4.985855 8.337952
H 1.055904 6.934466 11.24699
H 0.4714541 5.891294 9.930676
H 1.898748 5.41279 10.87742
H 0.2845054 5.376817 11.62266
C 0.927653 5.903841 10.91944