38
Export_20160115234213.xyz
C -6.656033 -2.409287 9.006731
H -6.555059 -2.806565 10.01563
H -7.113291 -1.421863 9.049491
H -5.672132 -2.33405 8.546072
H -7.283642 -3.074669 8.415716
C -4.700387 -0.7397773 8.047504
H -5.088085 -0.09687352 8.836945
H -5.126667 -0.4384183 7.091788
H -3.615925 -0.6495201 8.005882
H -4.970852 -1.773915 8.255677
C -2.853893 -0.0439111 7.651286
H -3.410023 -0.06900859 8.58674
H -3.429855 0.4947698 6.900277
H -1.901444 0.4600566 7.808692
H -2.673722 -1.061983 7.309238
C -2.517596 2.209359 7.337706
H -3.159431 2.381684 8.200504
H -2.974032 2.649116 6.452195
H -1.545465 2.668579 7.5111
H -2.391466 1.138253 7.187302
C -0.05923343 2.129929 6.248487
H -0.8675343 2.440393 6.908928
H -0.1954359 2.585827 5.26893
H 0.8943127 2.447942 6.667468
H -0.06823564 1.045493 6.148802
O -2.61738 -1.880407 6.725368
H -3.051662 -2.547441 6.194049
O 0.15503 2.948085 4.312871
H -0.2473344 2.233412 3.819721
O 0.009905577 1.997639 3.099917
H 0.587272 1.821918 2.357204
O 1.453557 2.191424 5.790072
H 1.181082 1.613737 5.075669
H 1.344107 1.66007 2.236408
H 1.257666 -0.1105012 2.378064
H 2.743356 0.6621445 1.779563
H 2.285494 0.8213865 3.490546
C 1.907656 0.7582749 2.471145